examples/dss/2busYy0/2busYy0.DSS
clear
!2-bus Yy0 example. 

! adapted from:
! IEEE 4-bus test case   Y-Y Stepdown Balanced
! Based on script developed by Alan Dunn and Steve Sparling

new circuit.2BusYy0 basekV=12.47 phases=3 
! **** HAVE TO STIFFEN THE SOURCE UP A LITTLE; THE TEST CASE ASSUMES AN INFINITE BUS
~ mvasc3=200000 200000


! **** 3-PHASE STEP-DOWN TRANSFORMER 12.47/4.16 KV Y-Y
new transformer.t1 xhl=6
~ wdg=1 bus=sourcebus conn=wye kV=12.47 kVA=6000 %r=0.5 
~ wdg=2 bus=n3 conn=wye kV=4.16  kVA=6000 %r=0.5 


! **** WYE-CONNECTED 4.16 KV LOAD
new load.load1 phases=3 bus1=n3 conn=wye kV=4.16 kW=5400 pf=0.9  model=1
! **** HAVE TO ALLOW P, Q TO REMAIN CONSTANT TO ABOUT .79 PU -- THIS IS ASSUMED IN TEST CASE
! **** DEFAULT IN DSS IS .95, BELOW WHICH IT REVERTS TO LINEAR MODEL
~ vminpu=0.75    ! model will remain const p,q down to 0.75 pu voltage    

set voltagebases=[12.47, 4.16] 
calcvoltagebases     ! **** let DSS compute voltage bases
solve

show voltages LN Nodes 
